@<TRIPOS>MOLECULE
ANGL3
 45 46 0 0 0
SMALL
GASTEIGER

@<TRIPOS>ATOM
      1 C           1.1196    0.0949    0.2343 C.3     1  UNL1        0.0788
      2 O           2.4540    0.2412   -0.2354 O.3     1  UNL1       -0.4951
      3 C           2.9226   -0.7587   -1.0413 C.ar    1  UNL1        0.1205
      4 C           2.5022   -2.0843   -1.0284 C.ar    1  UNL1       -0.0182
      5 C           3.1268   -3.0361   -1.8514 C.ar    1  UNL1       -0.0365
      6 C           4.1651   -2.6811   -2.7214 C.ar    1  UNL1        0.0400
      7 N           4.8507   -3.6428   -3.5609 N.am    1  UNL1       -0.2667
      8 C           5.0202   -4.9914   -3.1753 C.2     1  UNL1        0.2588
      9 C           5.8989   -5.9214   -4.0175 C.2     1  UNL1        0.0834
     10 C           7.1091   -5.4817   -4.6295 C.1     1  UNL1       -0.0648
     11 C           8.1159   -5.1524   -5.1880 C.1     1  UNL1       -0.1138
     12 C           5.5322   -7.2227   -4.1047 C.2     1  UNL1       -0.0582
     13 C           6.0632   -8.3325   -5.0281 C.3     1  UNL1       -0.0181
     14 C           7.4207   -8.9117   -4.5910 C.3     1  UNL1       -0.0566
     15 C           5.0317   -9.4848   -5.0161 C.3     1  UNL1       -0.0566
     16 C           6.1672   -7.8479   -6.4913 C.3     1  UNL1       -0.0566
     17 O           4.4964   -5.4824   -2.1686 O.2     1  UNL1       -0.2690
     18 C           5.3712   -3.0321   -4.7954 C.3     1  UNL1        0.0204
     19 C           6.3320   -1.9090   -4.4429 C.3     1  UNL1       -0.0327
     20 C           5.5323   -0.7933   -3.7886 C.3     1  UNL1       -0.0244
     21 C           4.5341   -1.3164   -2.7839 C.ar    1  UNL1       -0.0224
     22 C           3.9346   -0.3815   -1.9191 C.ar    1  UNL1       -0.0150
     23 H           0.8825    0.9787    0.8357 H       1  UNL1        0.0660
     24 H           1.0090   -0.7786    0.8887 H       1  UNL1        0.0660
     25 H           0.4195    0.0563   -0.6012 H       1  UNL1        0.0660
     26 H           1.7065   -2.4241   -0.3742 H       1  UNL1        0.0655
     27 H           2.7479   -4.0542   -1.8188 H       1  UNL1        0.0637
     28 H           8.9944   -4.8878   -5.7312 H       1  UNL1        0.1232
     29 H           4.6843   -7.5311   -3.4860 H       1  UNL1        0.0591
     30 H           7.3725   -9.3603   -3.5929 H       1  UNL1        0.0238
     31 H           8.2113   -8.1548   -4.5809 H       1  UNL1        0.0238
     32 H           7.7449   -9.6979   -5.2866 H       1  UNL1        0.0238
     33 H           4.9395   -9.9313   -4.0192 H       1  UNL1        0.0238
     34 H           5.3197  -10.2860   -5.7076 H       1  UNL1        0.0238
     35 H           4.0390   -9.1305   -5.3188 H       1  UNL1        0.0238
     36 H           7.0670   -7.2522   -6.6681 H       1  UNL1        0.0238
     37 H           5.2978   -7.2431   -6.7740 H       1  UNL1        0.0238
     38 H           6.2213   -8.6925   -7.1877 H       1  UNL1        0.0238
     39 H           4.5099   -2.6418   -5.3556 H       1  UNL1        0.0469
     40 H           5.8229   -3.7471   -5.4733 H       1  UNL1        0.0469
     41 H           6.8381   -1.5282   -5.3361 H       1  UNL1        0.0284
     42 H           7.1045   -2.2683   -3.7510 H       1  UNL1        0.0284
     43 H           4.9701   -0.2550   -4.5636 H       1  UNL1        0.0314
     44 H           6.2153   -0.0753   -3.3197 H       1  UNL1        0.0314
     45 H           4.2527    0.6598   -1.9372 H       1  UNL1        0.0657
@<TRIPOS>BOND
     1     1     2    1
     2     2     3    1
     3     3     4   ar
     4     4     5   ar
     5     5     6   ar
     6     6     7    1
     7     7     8   am
     8     8     9    1
     9     9    10    1
    10    10    11    3
    11     9    12    2
    12    12    13    1
    13    13    14    1
    14    13    15    1
    15    13    16    1
    16     8    17    2
    17     7    18    1
    18    18    19    1
    19    19    20    1
    20     6    21   ar
    21    20    21    1
    22    21    22   ar
    23     3    22   ar
    24     1    23    1
    25     1    24    1
    26     1    25    1
    27     4    26    1
    28     5    27    1
    29    11    28    1
    30    12    29    1
    31    14    30    1
    32    14    31    1
    33    14    32    1
    34    15    33    1
    35    15    34    1
    36    15    35    1
    37    16    36    1
    38    16    37    1
    39    16    38    1
    40    18    39    1
    41    18    40    1
    42    19    41    1
    43    19    42    1
    44    20    43    1
    45    20    44    1
    46    22    45    1
