ANGL0
 OpenBabel09142113313D

 23 22  0  0  0  0  0  0  0  0999 V2000
    3.9089   -0.1273    3.3510 O   0  0  0  0  0  0  0  0  0  0  0  0
    4.0087    0.9938    2.9350 C   0  0  0  0  0  0  0  0  0  0  0  0
    2.9391    1.8472    3.0024 N   0  0  0  0  0  0  0  0  0  0  0  0
    1.6691    1.3894    3.5843 C   0  0  0  0  0  0  0  0  0  0  0  0
    0.9049    0.5734    2.5544 C   0  0  0  0  0  0  0  0  0  0  0  0
   -0.5883    0.7231    2.7960 C   0  0  0  0  0  0  0  0  0  0  0  0
   -1.3525   -0.0928    1.7663 C   0  0  0  0  0  0  0  0  0  0  0  0
   -2.6940    0.5669    1.4910 C   0  0  0  0  0  0  0  0  0  0  0  0
   -3.7441    1.0835    1.2756 C   0  0  0  0  0  0  0  0  0  0  0  0
    5.3219    1.4673    2.3333 C   0  0  0  0  0  0  0  0  0  0  0  0
    6.2321    2.0932    3.4747 R#  0  0  0  0  0  0  0  0  0  0  0  0
    3.0222    2.7814    2.6557 H   0  0  0  0  0  0  0  0  0  0  0  0
    1.1218    2.1814    3.8549 H   0  0  0  0  0  0  0  0  0  0  0  0
    1.8553    0.8229    4.3870 H   0  0  0  0  0  0  0  0  0  0  0  0
    1.1608   -0.3899    2.6358 H   0  0  0  0  0  0  0  0  0  0  0  0
    1.1286    0.9014    1.6366 H   0  0  0  0  0  0  0  0  0  0  0  0
   -0.8120    0.3952    3.7139 H   0  0  0  0  0  0  0  0  0  0  0  0
   -0.8442    1.6864    2.7147 H   0  0  0  0  0  0  0  0  0  0  0  0
   -0.8238   -0.1393    0.9187 H   0  0  0  0  0  0  0  0  0  0  0  0
   -1.5015   -1.0173    2.1173 H   0  0  0  0  0  0  0  0  0  0  0  0
   -4.6266    1.5175    1.0946 H   0  0  0  0  0  0  0  0  0  0  0  0
    5.7961    0.6918    1.9164 H   0  0  0  0  0  0  0  0  0  0  0  0
    5.1384    2.1600    1.6358 H   0  0  0  0  0  0  0  0  0  0  0  0
  1  2  2  0  0  0  0
  2  3  1  0  0  0  0
  2 10  1  0  0  0  0
  3  4  1  0  0  0  0
  3 12  1  0  0  0  0
  4  5  1  0  0  0  0
  4 13  1  0  0  0  0
  4 14  1  0  0  0  0
  5  6  1  0  0  0  0
  5 15  1  0  0  0  0
  5 16  1  0  0  0  0
  6  7  1  0  0  0  0
  6 17  1  0  0  0  0
  6 18  1  0  0  0  0
  7  8  1  0  0  0  0
  7 19  1  0  0  0  0
  7 20  1  0  0  0  0
  8  9  3  0  0  0  0
  9 21  1  0  0  0  0
 10 11  1  0  0  0  0
 10 22  1  0  0  0  0
 10 23  1  0  0  0  0
M  END
$$$$
