@<TRIPOS>MOLECULE
COMP1
  36   37
SMALL
USER_CHARGES
@<TRIPOS>ATOM
   1 C1           5.0420    -4.7455     1.2815 C.3          1    LIG   0.0000
   2 O2           5.5046    -3.6012     0.5792 O.3          1    LIG   0.0000
   3 C3           4.7293    -2.5006     0.6863 C.ar         1    LIG   0.0000
   4 C4           3.5683    -2.5230     1.4534 C.ar         1    LIG   0.0000
   5 C5           2.7978    -1.3688     1.5573 C.ar         1    LIG   0.0000
   6 C6           3.1521    -0.1807     0.9194 C.ar         1    LIG   0.0000
   7 N7           2.4016     1.0000     1.0000 N.am         1    LIG   0.0000
   8 C8           1.0000     1.0000     1.0000 C.2          1    LIG   0.0000
   9 C9           0.2400     2.3133     1.0896 C.3          1    LIG   0.0000
  10 C10          0.6072     3.0240     2.3821 C.1          1    LIG   0.0000
  11 C11          0.8947     3.5804     3.3940 C.1          1    LIG   0.0000
  12 C12         -1.2544     2.0362     1.0707 C.3          1    LIG   0.0000
  13 SH          -1.6917     1.1899    -0.4683 S.3          1    LIG   0.0000
  14 O14          0.4000    -0.0368     0.9292 O.2          1    LIG   0.0000
  15 C15          3.1056     2.2904     1.0999 C.3          1    LIG   0.0000
  16 C16          4.5225     2.2319     0.5436 C.3          1    LIG   0.0000
  17 C17          4.7307     1.1403    -0.4949 C.3          1    LIG   0.0000
  18 C18          4.3194    -0.1650     0.1680 C.ar         1    LIG   0.0000
  19 C19          5.0847    -1.3201     0.0400 C.ar         1    LIG   0.0000
  20 H            5.6796    -5.5030     1.1410 H            1    LIG   0.0000
  21 H            4.9828    -4.5362     2.2575 H            1    LIG   0.0000
  22 H            4.1380    -5.0031     0.9403 H            1    LIG   0.0000
  23 H            3.2905    -3.3599     1.9250 H            1    LIG   0.0000
  24 H            1.9630    -1.3923     2.1073 H            1    LIG   0.0000
  25 H            0.4816     2.8921     0.3107 H            1    LIG   0.0000
  26 H            1.1363     4.0480     4.2443 H            1    LIG   0.0000
  27 H           -1.4960     1.4574     1.8496 H            1    LIG   0.0000
  28 H           -1.7544     2.9002     1.1297 H            1    LIG   0.0000
  29 HS          -2.6748     1.0076    -0.4808 H            1    LIG   0.0000
  30 H            3.1507     2.5564     2.0628 H            1    LIG   0.0000
  31 H            2.5891     2.9770     0.5883 H            1    LIG   0.0000
  32 H            5.1526     2.0688     1.3028 H            1    LIG   0.0000
  33 H            4.7314     3.1135     0.1204 H            1    LIG   0.0000
  34 H            4.1620     1.3144    -1.2988 H            1    LIG   0.0000
  35 H            5.6918     1.1018    -0.7684 H            1    LIG   0.0000
  36 H            5.9073    -1.3017    -0.5284 H            1    LIG   0.0000
@<TRIPOS>BOND
   1        1        2 1
   2        2        3 1
   3        3        4 ar
   4        4        5 ar
   5        5        6 ar
   6        6        7 1
   7        7        8 am
   8        8        9 1
   9        9       10 1
  10       10       11 3
  11        9       12 1
  12       12       13 1
  13        8       14 2
  14        7       15 1
  15       15       16 1
  16       16       17 1
  17        6       18 ar
  18       18       17 1
  19       18       19 ar
  20       19        3 ar
  21        1       20 1
  22        1       21 1
  23        1       22 1
  24        4       23 1
  25        5       24 1
  26        9       25 1
  27       11       26 1
  28       12       27 1
  29       12       28 1
  30       13       29 1
  31       15       30 1
  32       15       31 1
  33       16       32 1
  34       16       33 1
  35       17       34 1
  36       17       35 1
  37       19       36 1

