@<TRIPOS>MOLECULE
ANGL0
24 23 1 0 0
SMALL
GASTEIGER


@<TRIPOS>ATOM
      1 O           3.9089   -0.1273    3.3510 O.2       1 UNK    0.0000
      2 C           4.0087    0.9938    2.9350 C.2       1 UNK    0.0000
      3 N           2.9391    1.8472    3.0024 N.am      1 UNK    0.0000
      4 C           1.6691    1.3894    3.5843 C.3       1 UNK    0.0000
      5 C           0.9049    0.5734    2.5544 C.3       1 UNK    0.0000
      6 C          -0.5883    0.7231    2.7960 C.3       1 UNK    0.0000
      7 C          -1.3525   -0.0928    1.7663 C.3       1 UNK    0.0000
      8 C          -2.6940    0.5669    1.4910 C.1       1 UNK    0.0000
      9 C          -3.7441    1.0835    1.2756 C.1       1 UNK    0.0000
     10 C           5.3219    1.4673    2.3333 C.3       1 UNK    0.0000
     11 SH          6.3562    2.1786    3.6303 S.3       1 UNK    0.0000
     12 H           3.0222    2.7814    2.6557 H         1 UNK    0.0000
     13 H           1.1218    2.1814    3.8549 H         1 UNK    0.0000
     14 H           1.8553    0.8229    4.3870 H         1 UNK    0.0000
     15 H           1.1608   -0.3899    2.6358 H         1 UNK    0.0000
     16 H           1.1286    0.9014    1.6366 H         1 UNK    0.0000
     17 H          -0.8120    0.3952    3.7139 H         1 UNK    0.0000
     18 H          -0.8442    1.6864    2.7147 H         1 UNK    0.0000
     19 H          -0.8238   -0.1393    0.9187 H         1 UNK    0.0000
     20 H          -1.5015   -1.0173    2.1173 H         1 UNK    0.0000
     21 H          -4.6266    1.5175    1.0946 H         1 UNK    0.0000
     22 H           5.7961    0.6918    1.9164 H         1 UNK    0.0000
     23 H           5.1384    2.1600    1.6358 H         1 UNK    0.0000
     24 HS          7.4187    2.5618    3.1442 H         1 UNK    0.0000
@<TRIPOS>BOND
     1    1    2 2
     2    2    3 am
     3    2   10 1
     4    3    4 1
     5    3   12 1
     6    4    5 1
     7    4   13 1
     8    4   14 1
     9    5    6 1
    10    5   15 1
    11    5   16 1
    12    6    7 1
    13    6   17 1
    14    6   18 1
    15    7    8 1
    16    7   19 1
    17    7   20 1
    18    8    9 3
    19    9   21 1
    20   10   11 1
    21   10   22 1
    22   10   23 1
    23   24   11 1
@<TRIPOS>SUBSTRUCTURE
     1 UNK     1 RESIDUE           4 A     UNK     0 ROOT
